129893609
  -OEChem-10222220142D

 77 81  0     1  0  0  0  0  0999 V2000
    1.4410    5.7439    0.0000 P   0  0  0  0  0  0  0  0  0  0  0  0
    7.0121    6.1371    0.0000 P   0  0  3  0  0  0  0  0  0  0  0  0
    8.7350    6.3151    0.0000 P   0  0  3  0  0  0  0  0  0  0  0  0
    4.4775    4.3726    0.0000 O   0  0  0  0  0  0  0  0  0  0  0  0
   11.5769    5.1064    0.0000 O   0  0  0  0  0  0  0  0  0  0  0  0
    1.9395    4.8770    0.0000 O   0  0  0  0  0  0  0  0  0  0  0  0
    3.2213    6.6349    0.0000 O   0  0  0  0  0  0  0  0  0  0  0  0
    6.2021    5.5507    0.0000 O   0  0  0  0  0  0  0  0  0  0  0  0
   12.3438    7.5777    0.0000 O   0  0  0  0  0  0  0  0  0  0  0  0
   13.9581    6.1192    0.0000 O   0  0  0  0  0  0  0  0  0  0  0  0
    9.6478    5.9068    0.0000 O   0  0  0  0  0  0  0  0  0  0  0  0
    7.8221    6.7235    0.0000 O   0  0  0  0  0  0  0  0  0  0  0  0
    0.9425    6.6108    0.0000 O   0  0  0  0  0  0  0  0  0  0  0  0
    0.5741    5.2454    0.0000 O   0  0  0  0  0  0  0  0  0  0  0  0
    2.3079    6.2424    0.0000 O   0  0  0  0  0  0  0  0  0  0  0  0
    7.5985    5.3270    0.0000 O   0  0  0  0  0  0  0  0  0  0  0  0
    9.1433    7.2280    0.0000 O   0  0  0  0  0  0  0  0  0  0  0  0
    6.4257    6.9471    0.0000 O   0  0  0  0  0  0  0  0  0  0  0  0
    8.3267    5.4023    0.0000 O   0  0  0  0  0  0  0  0  0  0  0  0
   11.5652    1.5378    0.0000 O   0  0  0  0  0  0  0  0  0  0  0  0
    3.2152    3.1147    0.0000 N   0  0  0  0  0  0  0  0  0  0  0  0
   13.0697    4.1332    0.0000 N   0  3  0  0  0  0  0  0  0  0  0  0
    3.2152    1.5053    0.0000 N   0  0  0  0  0  0  0  0  0  0  0  0
    1.4030    3.3100    0.0000 N   0  0  0  0  0  0  0  0  0  0  0  0
    0.5369    1.8100    0.0000 N   0  0  0  0  0  0  0  0  0  0  0  0
    1.4030    0.3100    0.0000 N   0  0  0  0  0  0  0  0  0  0  0  0
   13.0637    0.6692    0.0000 N   0  0  0  0  0  0  0  0  0  0  0  0
    2.9395    4.8753    0.0000 C   0  0  2  0  0  0  0  0  0  0  0  0
    3.5287    5.6833    0.0000 C   0  0  1  0  0  0  0  0  0  0  0  0
    3.5259    4.0652    0.0000 C   0  0  1  0  0  0  0  0  0  0  0  0
    4.4792    5.3726    0.0000 C   0  0  1  0  0  0  0  0  0  0  0  0
   12.2376    6.5834    0.0000 C   0  0  1  0  0  0  0  0  0  0  0  0
   12.9796    5.9130    0.0000 C   0  0  2  0  0  0  0  0  0  0  0  0
   11.3707    6.0849    0.0000 C   0  0  1  0  0  0  0  0  0  0  0  0
   12.5712    5.0001    0.0000 C   0  0  1  0  0  0  0  0  0  0  0  0
    5.2892    5.9590    0.0000 C   0  0  0  0  0  0  0  0  0  0  0  0
   10.4578    6.4932    0.0000 C   0  0  0  0  0  0  0  0  0  0  0  0
    2.2690    2.8100    0.0000 C   0  0  0  0  0  0  0  0  0  0  0  0
    3.7988    2.3100    0.0000 C   0  0  0  0  0  0  0  0  0  0  0  0
    2.2690    1.8100    0.0000 C   0  0  0  0  0  0  0  0  0  0  0  0
   12.5682    3.2681    0.0000 C   0  0  0  0  0  0  0  0  0  0  0  0
   14.0697    4.1315    0.0000 C   0  0  0  0  0  0  0  0  0  0  0  0
   13.0667    2.4012    0.0000 C   0  0  0  0  0  0  0  0  0  0  0  0
    1.4030    1.3100    0.0000 C   0  0  0  0  0  0  0  0  0  0  0  0
   14.5682    3.2646    0.0000 C   0  0  0  0  0  0  0  0  0  0  0  0
   14.0667    2.3995    0.0000 C   0  0  0  0  0  0  0  0  0  0  0  0
    0.5369    2.8100    0.0000 C   0  0  0  0  0  0  0  0  0  0  0  0
   12.5652    1.5360    0.0000 C   0  0  0  0  0  0  0  0  0  0  0  0
    2.6570    4.3233    0.0000 H   0  0  0  0  0  0  0  0  0  0  0  0
    2.9165    5.7813    0.0000 H   0  0  0  0  0  0  0  0  0  0  0  0
    3.9635    3.6261    0.0000 H   0  0  0  0  0  0  0  0  0  0  0  0
    5.0311    5.0902    0.0000 H   0  0  0  0  0  0  0  0  0  0  0  0
   12.8168    6.8046    0.0000 H   0  0  0  0  0  0  0  0  0  0  0  0
   13.3689    5.4305    0.0000 H   0  0  0  0  0  0  0  0  0  0  0  0
   10.8882    5.6956    0.0000 H   0  0  0  0  0  0  0  0  0  0  0  0
   12.2327    4.4807    0.0000 H   0  0  0  0  0  0  0  0  0  0  0  0
    5.6368    6.4724    0.0000 H   0  0  0  0  0  0  0  0  0  0  0  0
    4.8440    6.3905    0.0000 H   0  0  0  0  0  0  0  0  0  0  0  0
   10.8054    7.0066    0.0000 H   0  0  0  0  0  0  0  0  0  0  0  0
   10.0126    6.9247    0.0000 H   0  0  0  0  0  0  0  0  0  0  0  0
    3.6370    7.0949    0.0000 H   0  0  0  0  0  0  0  0  0  0  0  0
    4.4188    2.3100    0.0000 H   0  0  0  0  0  0  0  0  0  0  0  0
   12.9107    7.8289    0.0000 H   0  0  0  0  0  0  0  0  0  0  0  0
   14.1507    6.7085    0.0000 H   0  0  0  0  0  0  0  0  0  0  0  0
   11.9482    3.2692    0.0000 H   0  0  0  0  0  0  0  0  0  0  0  0
   14.3807    4.6679    0.0000 H   0  0  0  0  0  0  0  0  0  0  0  0
   15.1882    3.2636    0.0000 H   0  0  0  0  0  0  0  0  0  0  0  0
   14.3758    1.8620    0.0000 H   0  0  0  0  0  0  0  0  0  0  0  0
    0.3225    6.6119    0.0000 H   0  0  0  0  0  0  0  0  0  0  0  0
    0.0377    5.5563    0.0000 H   0  0  0  0  0  0  0  0  0  0  0  0
    0.0000    3.1200    0.0000 H   0  0  0  0  0  0  0  0  0  0  0  0
    7.3453    4.7611    0.0000 H   0  0  0  0  0  0  0  0  0  0  0  0
    0.8660    0.0000    0.0000 H   0  0  0  0  0  0  0  0  0  0  0  0
    1.9399    0.0000    0.0000 H   0  0  0  0  0  0  0  0  0  0  0  0
    8.7797    7.7302    0.0000 H   0  0  0  0  0  0  0  0  0  0  0  0
   12.7528    0.1328    0.0000 H   0  0  0  0  0  0  0  0  0  0  0  0
   13.6837    0.6681    0.0000 H   0  0  0  0  0  0  0  0  0  0  0  0
  1  7  1  0  0  0  0
  1 14  1  0  0  0  0
  1 15  1  0  0  0  0
  1 16  2  0  0  0  0
  2  9  1  0  0  0  0
  2 13  1  0  0  0  0
  2 17  1  0  0  0  0
  2 19  2  0  0  0  0
  3 12  1  0  0  0  0
  3 13  1  0  0  0  0
  3 18  1  0  0  0  0
  3 20  2  0  0  0  0
  5 31  1  0  0  0  0
  5 32  1  0  0  0  0
  6 35  1  0  0  0  0
  6 36  1  0  0  0  0
 29  7  1  6  0  0  0
 30  8  1  6  0  0  0
  8 62  1  0  0  0  0
  9 37  1  0  0  0  0
 33 10  1  1  0  0  0
 10 64  1  0  0  0  0
 34 11  1  1  0  0  0
 11 65  1  0  0  0  0
 12 38  1  0  0  0  0
 14 70  1  0  0  0  0
 15 71  1  0  0  0  0
 17 73  1  0  0  0  0
 18 76  1  0  0  0  0
 21 49  2  0  0  0  0
 31 22  1  1  0  0  0
 22 39  1  0  0  0  0
 22 40  1  0  0  0  0
 36 23  1  6  0  0  0
 23 42  1  0  0  0  0
 23 43  2  0  0  0  0
 24 40  2  0  0  0  0
 24 41  1  0  0  0  0
 25 39  2  0  0  0  0
 25 48  1  0  0  0  0
 26 45  1  0  0  0  0
 26 48  2  0  0  0  0
 27 45  1  0  0  0  0
 27 74  1  0  0  0  0
 27 75  1  0  0  0  0
 28 49  1  0  0  0  0
 28 77  1  0  0  0  0
 28 78  1  0  0  0  0
 29 30  1  0  0  0  0
 29 31  1  0  0  0  0
 29 50  1  0  0  0  0
 30 32  1  0  0  0  0
 30 51  1  0  0  0  0
 31 52  1  0  0  0  0
 32 37  1  1  0  0  0
 32 53  1  0  0  0  0
 33 34  1  0  0  0  0
 33 35  1  0  0  0  0
 33 54  1  0  0  0  0
 34 36  1  0  0  0  0
 34 55  1  0  0  0  0
 35 38  1  6  0  0  0
 35 56  1  0  0  0  0
 36 57  1  0  0  0  0
 37 58  1  0  0  0  0
 37 59  1  0  0  0  0
 38 60  1  0  0  0  0
 38 61  1  0  0  0  0
 39 41  1  0  0  0  0
 40 63  1  0  0  0  0
 41 45  2  0  0  0  0
 42 44  2  0  0  0  0
 42 66  1  0  0  0  0
 43 46  1  0  0  0  0
 43 67  1  0  0  0  0
 44 47  1  0  0  0  0
 44 49  1  0  0  0  0
 46 47  2  0  0  0  0
 46 68  1  0  0  0  0
 47 69  1  0  0  0  0
 48 72  1  0  0  0  0
M  CHG  1  23   1
M  RAD  1   4   2
M  END
> <PUBCHEM_COMPOUND_CID>
129893609

> <PUBCHEM_COMPOUND_CANONICALIZED>
1

> <PUBCHEM_CACTVS_COMPLEXITY>
1300

> <PUBCHEM_CACTVS_HBOND_ACCEPTOR>
21

> <PUBCHEM_CACTVS_HBOND_DONOR>
9

> <PUBCHEM_CACTVS_ROTATABLE_BOND>
13

> <PUBCHEM_CACTVS_SUBSKEYS>
AAADceB7viMAAAAAAAAAAAAAAAAAAWJEgAAsWAAAAAAAAFgB/gAAHgAQCCAADBzhnwY98L9MFxCoQzd3dICCgC01EqAJ2CE4dNiLePrA3dGeZYhvgALbyeb4MQIMAAAAAAAAAAAAAAAAAAAAAAAAAAAAAA==

> <PUBCHEM_IUPAC_INCHI>
InChI=1S/C21H28N7O17P3.Na/c22-17-12-19(25-7-24-17)28(8-26-12)21-16(44-46(33,34)35)14(30)11(43-21)6-41-48(38,39)45-47(36,37)40-5-10-13(29)15(31)20(42-10)27-3-1-2-9(4-27)18(23)32;/h1-4,7-8,10-11,13-16,20-21,29-31H,5-6H2,(H7-,22,23,24,25,32,33,34,35,36,37,38,39);/p+1/t10-,11-,13-,14-,15-,16-,20-,21-;/m1./s1

> <PUBCHEM_IUPAC_INCHIKEY>
ZUXQIVQXILFYQI-QYZPTAICSA-O

> <PUBCHEM_EXACT_MASS>
767.07304776

> <PUBCHEM_MOLECULAR_FORMULA>
C21H29N7NaO17P3+

> <PUBCHEM_MOLECULAR_WEIGHT>
767.4

> <PUBCHEM_OPENEYE_CAN_SMILES>
C1=CC(=C[N+](=C1)C2C(C(C(O2)COP(=O)(O)OP(=O)(O)OCC3C(C(C(O3)N4C=NC5=C(N=CN=C54)N)OP(=O)(O)O)O)O)O)C(=O)N.[Na]

> <PUBCHEM_OPENEYE_ISO_SMILES>
C1=CC(=C[N+](=C1)[C@H]2[C@@H]([C@@H]([C@H](O2)COP(=O)(O)OP(=O)(O)OC[C@@H]3[C@H]([C@H]([C@@H](O3)N4C=NC5=C(N=CN=C54)N)OP(=O)(O)O)O)O)O)C(=O)N.[Na]

> <PUBCHEM_CACTVS_TPSA>
365

> <PUBCHEM_MONOISOTOPIC_WEIGHT>
767.07304776

> <PUBCHEM_TOTAL_CHARGE>
1

> <PUBCHEM_HEAVY_ATOM_COUNT>
49

> <PUBCHEM_ATOM_DEF_STEREO_COUNT>
8

> <PUBCHEM_ATOM_UDEF_STEREO_COUNT>
0

> <PUBCHEM_BOND_DEF_STEREO_COUNT>
0

> <PUBCHEM_BOND_UDEF_STEREO_COUNT>
0

> <PUBCHEM_ISOTOPIC_ATOM_COUNT>
0

> <PUBCHEM_COMPONENT_COUNT>
2

> <PUBCHEM_CACTVS_TAUTO_COUNT>
-1

> <PUBCHEM_COORDINATE_TYPE>
1
5
255

> <PUBCHEM_BONDANNOTATIONS>
33  10  5
34  11  5
31  22  5
22  39  8
22  40  8
36  23  6
23  42  8
23  43  8
24  40  8
24  41  8
25  39  8
25  48  8
26  45  8
26  48  8
32  37  5
35  38  6
39  41  8
41  45  8
42  44  8
43  46  8
44  47  8
46  47  8
29  7  6
30  8  6

$$$$
